REMARK  15 active torsions:
REMARK  status: ('A' for Active; 'I' for Inactive)
REMARK    1  A    between atoms: C_4  and  C_5 
REMARK    2  A    between atoms: C_4  and  C_3 
REMARK    3  A    between atoms: C_3  and  C_2 
REMARK    4  A    between atoms: C_2  and  C_1 
REMARK    5  A    between atoms: C_1  and  C_15 
REMARK    6  A    between atoms: C_16  and  C_17 
REMARK    7  A    between atoms: C_17  and  C_18 
REMARK    8  A    between atoms: C_18  and  C_19 
REMARK    9  A    between atoms: C_5  and  C_6 
REMARK   10  A    between atoms: C_6  and  C_7 
REMARK   11  A    between atoms: C_7  and  C_8 
REMARK   12  A    between atoms: C_8  and  C_9 
REMARK   13  A    between atoms: C_9  and  C_10 
REMARK   14  A    between atoms: C_10  and  O_11 
REMARK   15  A    between atoms: O_11  and  C_12 
ROOT
ATOM      1  C   UNL     1       0.569  -2.011  -1.917  0.00  0.00     0.000 C 
ENDROOT
BRANCH   1   2
ATOM      2  C   UNL     1      -0.936  -1.959  -1.662  0.00  0.00     0.000 C 
BRANCH   2   3
ATOM      3  C   UNL     1      -1.506  -3.349  -1.373  0.00  0.00     0.000 C 
BRANCH   3   4
ATOM      4  C   UNL     1      -3.011  -3.252  -1.123  0.00  0.00     0.000 C 
BRANCH   4   5
ATOM      5  C   UNL     1      -3.654  -4.615  -0.860  0.00  0.00     0.003 C 
BRANCH   5   6
ATOM      6  C   UNL     1      -5.165  -4.520  -0.603  0.00  0.00     0.033 C 
BRANCH   6   7
ATOM      7  C   UNL     1      -5.956  -3.927  -1.772  0.00  0.00     0.152 C 
BRANCH   7   8
ATOM      8  O   UNL     1      -7.352  -3.768  -1.445  0.00  0.00    -0.302 OA
BRANCH   8   9
ATOM      9  C   UNL     1      -8.150  -4.851  -1.634  0.00  0.00     0.272 C 
ATOM     10  O   UNL     1      -7.765  -5.956  -2.000  0.00  0.00    -0.264 OA
ATOM     11  C   UNL     1      -9.589  -4.507  -1.395  0.00  0.00     0.106 C 
ENDBRANCH   8   9
ENDBRANCH   7   8
ENDBRANCH   6   7
ENDBRANCH   5   6
ENDBRANCH   4   5
ENDBRANCH   3   4
ENDBRANCH   2   3
ENDBRANCH   1   2
BRANCH   1  12
ATOM     12  C   UNL     1       1.168  -0.631  -2.207  0.00  0.00     0.000 C 
BRANCH  12  13
ATOM     13  C   UNL     1       1.042   0.394  -1.071  0.00  0.00     0.005 C 
BRANCH  13  14
ATOM     14  C   UNL     1       1.629  -0.033   0.284  0.00  0.00     0.026 C 
BRANCH  14  15
ATOM     15  C   UNL     1       3.112  -0.284   0.260  0.00  0.00    -0.031 C 
ATOM     16  C   UNL     1       3.987  -0.080   1.259  0.00  0.00    -0.031 C 
BRANCH  16  17
ATOM     17  C   UNL     1       3.712   0.464   2.635  0.00  0.00     0.026 C 
BRANCH  17  18
ATOM     18  C   UNL     1       3.990  -0.523   3.779  0.00  0.00     0.005 C 
BRANCH  18  19
ATOM     19  C   UNL     1       5.446  -0.988   3.868  0.00  0.00     0.000 C 
ATOM     20  C   UNL     1       5.668  -1.922   5.049  0.00  0.00     0.000 C 
ENDBRANCH  18  19
ENDBRANCH  17  18
ENDBRANCH  16  17
ENDBRANCH  14  15
ENDBRANCH  13  14
ENDBRANCH  12  13
ENDBRANCH   1  12
TORSDOF 15
