REMARK  15 active torsions:
REMARK  status: ('A' for Active; 'I' for Inactive)
REMARK    1  A    between atoms: C_10  and  C_9 
REMARK    2  A    between atoms: C_10  and  C_11 
REMARK    3  A    between atoms: C_12  and  C_13 
REMARK    4  A    between atoms: C_13  and  C_14 
REMARK    5  A    between atoms: C_14  and  C_15 
REMARK    6  A    between atoms: C_15  and  C_16 
REMARK    7  A    between atoms: C_16  and  C_17 
REMARK    8  A    between atoms: C_17  and  C_18 
REMARK    9  A    between atoms: C_18  and  C_19 
REMARK   10  A    between atoms: C_9  and  C_8 
REMARK   11  A    between atoms: C_8  and  C_1 
REMARK   12  A    between atoms: C_1  and  C_2 
REMARK   13  A    between atoms: C_2  and  C_3 
REMARK   14  A    between atoms: C_3  and  O_4 
REMARK   15  A    between atoms: O_4  and  C_5 
ROOT
ATOM      1  C   UNL     1       0.287   0.149   2.880  0.00  0.00     0.026 C 
ENDROOT
BRANCH   1   2
ATOM      2  C   UNL     1       0.846  -1.279   2.854  0.00  0.00     0.005 C 
BRANCH   2   3
ATOM      3  C   UNL     1       0.159  -2.149   1.802  0.00  0.00     0.000 C 
BRANCH   3   4
ATOM      4  C   UNL     1       0.585  -3.608   1.913  0.00  0.00     0.003 C 
BRANCH   4   5
ATOM      5  C   UNL     1      -0.124  -4.441   0.845  0.00  0.00     0.033 C 
BRANCH   5   6
ATOM      6  C   UNL     1       0.232  -5.920   0.933  0.00  0.00     0.152 C 
BRANCH   6   7
ATOM      7  O   UNL     1       1.643  -6.143   0.805  0.00  0.00    -0.302 OA
BRANCH   7   8
ATOM      8  C   UNL     1       2.125  -6.177  -0.467  0.00  0.00     0.272 C 
ATOM      9  O   UNL     1       1.472  -5.989  -1.484  0.00  0.00    -0.264 OA
ATOM     10  C   UNL     1       3.575  -6.555  -0.456  0.00  0.00     0.106 C 
ENDBRANCH   7   8
ENDBRANCH   6   7
ENDBRANCH   5   6
ENDBRANCH   4   5
ENDBRANCH   3   4
ENDBRANCH   2   3
ENDBRANCH   1   2
BRANCH   1  11
ATOM     11  C   UNL     1      -1.202   0.141   3.082  0.00  0.00    -0.031 C 
ATOM     12  C   UNL     1      -1.829  -0.102   4.243  0.00  0.00    -0.031 C 
BRANCH  12  13
ATOM     13  C   UNL     1      -1.156  -0.266   5.576  0.00  0.00     0.026 C 
BRANCH  13  14
ATOM     14  C   UNL     1      -1.372   1.032   6.339  0.00  0.00     0.005 C 
BRANCH  14  15
ATOM     15  C   UNL     1      -0.665   1.045   7.684  0.00  0.00     0.000 C 
BRANCH  15  16
ATOM     16  C   UNL     1      -0.926   2.388   8.359  0.00  0.00     0.000 C 
BRANCH  16  17
ATOM     17  C   UNL     1      -0.273   2.467   9.731  0.00  0.00     0.000 C 
BRANCH  17  18
ATOM     18  C   UNL     1      -0.568   3.817  10.381  0.00  0.00     0.000 C 
BRANCH  18  19
ATOM     19  C   UNL     1       0.066   3.908  11.764  0.00  0.00     0.000 C 
ATOM     20  C   UNL     1      -0.227   5.248  12.415  0.00  0.00     0.000 C 
ENDBRANCH  18  19
ENDBRANCH  17  18
ENDBRANCH  16  17
ENDBRANCH  15  16
ENDBRANCH  14  15
ENDBRANCH  13  14
ENDBRANCH  12  13
ENDBRANCH   1  11
TORSDOF 15
