REMARK  15 active torsions:
REMARK  status: ('A' for Active; 'I' for Inactive)
REMARK    1  A    between atoms: C_10  and  C_11 
REMARK    2  A    between atoms: C_10  and  C_9 
REMARK    3  A    between atoms: C_9  and  C_8 
REMARK    4  A    between atoms: C_8  and  C_1 
REMARK    5  A    between atoms: C_1  and  C_2 
REMARK    6  A    between atoms: C_2  and  C_3 
REMARK    7  A    between atoms: C_3  and  O_4 
REMARK    8  A    between atoms: O_4  and  C_5 
REMARK    9  A    between atoms: C_11  and  C_12 
REMARK   10  A    between atoms: C_12  and  C_13 
REMARK   11  A    between atoms: C_14  and  C_15 
REMARK   12  A    between atoms: C_15  and  C_16 
REMARK   13  A    between atoms: C_16  and  C_17 
REMARK   14  A    between atoms: C_17  and  C_18 
REMARK   15  A    between atoms: C_18  and  C_19 
ROOT
ATOM      1  C   UNL     1       0.414  -2.934  -0.272  0.00  0.00     0.000 C 
ENDROOT
BRANCH   1   2
ATOM      2  C   UNL     1      -1.108  -3.060  -0.417  0.00  0.00     0.005 C 
BRANCH   2   3
ATOM      3  C   UNL     1      -1.586  -3.259  -1.858  0.00  0.00     0.026 C 
BRANCH   3   4
ATOM      4  C   UNL     1      -0.977  -4.496  -2.453  0.00  0.00    -0.031 C 
ATOM      5  C   UNL     1      -1.570  -5.695  -2.539  0.00  0.00    -0.031 C 
BRANCH   5   6
ATOM      6  C   UNL     1      -2.978  -5.996  -2.120  0.00  0.00     0.026 C 
BRANCH   6   7
ATOM      7  C   UNL     1      -3.866  -5.898  -3.355  0.00  0.00     0.005 C 
BRANCH   7   8
ATOM      8  C   UNL     1      -5.337  -6.120  -3.030  0.00  0.00     0.000 C 
BRANCH   8   9
ATOM      9  C   UNL     1      -6.164  -6.019  -4.311  0.00  0.00     0.000 C 
BRANCH   9  10
ATOM     10  C   UNL     1      -7.642  -6.275  -4.047  0.00  0.00     0.000 C 
ATOM     11  C   UNL     1      -8.445  -6.185  -5.334  0.00  0.00     0.000 C 
ENDBRANCH   9  10
ENDBRANCH   8   9
ENDBRANCH   7   8
ENDBRANCH   6   7
ENDBRANCH   5   6
ENDBRANCH   3   4
ENDBRANCH   2   3
ENDBRANCH   1   2
BRANCH   1  12
ATOM     12  C   UNL     1       0.960  -1.727  -1.033  0.00  0.00     0.000 C 
BRANCH  12  13
ATOM     13  C   UNL     1       2.479  -1.634  -0.944  0.00  0.00     0.000 C 
BRANCH  13  14
ATOM     14  C   UNL     1       2.977  -0.413  -1.720  0.00  0.00     0.003 C 
BRANCH  14  15
ATOM     15  C   UNL     1       4.501  -0.310  -1.672  0.00  0.00     0.033 C 
BRANCH  15  16
ATOM     16  C   UNL     1       5.023   0.948  -2.362  0.00  0.00     0.152 C 
BRANCH  16  17
ATOM     17  O   UNL     1       4.656   1.007  -3.749  0.00  0.00    -0.302 OA
BRANCH  17  18
ATOM     18  C   UNL     1       5.476   0.338  -4.606  0.00  0.00     0.272 C 
ATOM     19  O   UNL     1       6.432  -0.352  -4.284  0.00  0.00    -0.264 OA
ATOM     20  C   UNL     1       5.100   0.633  -6.028  0.00  0.00     0.106 C 
ENDBRANCH  17  18
ENDBRANCH  16  17
ENDBRANCH  15  16
ENDBRANCH  14  15
ENDBRANCH  13  14
ENDBRANCH  12  13
ENDBRANCH   1  12
TORSDOF 15
